[General]
record-eventlog = false
**.vector-recording=false
  
**.numReqs = 20000
**.flitsPerRequest = 20000

ned-path=.;../../../../../../../;../../../../../../../../src

include omnetpp.ini.include

**.debug = true

# Select Component Types
**.routerType = "hnocs.routers.hier.ScheduledSwitch"
**.coreType   = "hnocs.cores.NI"
**.sourceType = "hnocs.cores.sources.ScheduledSrc"
**.sinkType   = "hnocs.cores.sinks.InfiniteBWMultiVCScheduledSink"
**.portType   = "hnocs.routers.hier.Port"
**.inPortType = "hnocs.routers.hier.inPort.InPortScheduledSync"
**.OPCalcType = "hnocs.routers.hier.opCalc.static.ScheduledCalc"
**.VCCalcType = "hnocs.routers.hier.vcCalc.free.EmptyVCCalc"
**.schedType  = "hnocs.routers.hier.sched.Switch.SwitchSync"

# EFNoc specific
**.scheduleFileName = "schedule.csv"

# Network link bandwidth
sim-time-limit = 2s

# Global Parameters
**.numVCs = 2
**.flitSize = 4B
**.statStartTime = 1us # when to start 

# Source Parameters
**.source.pktVC = 0  # the VC injecting the packet on from the NI 
**.source.isTrace = true  # do not inject based on trace file
**.source.flitArrivalDelay = 2ns  # 1 flit / Cycle
**.source.iterations = 2

# Sink Parameters
# all params are global 

# In Port Parameters
**.inPort.flitsPerVC = 4
# OPCalc
# No parameters

# VCCalc
# No parameters

# Sched Parameters
**.sched.freeRunningClk = false # if true the clk is free running else it depends on activity
**.heterogeneous = false # indicates whther the NoC is heterogeneous
**.givenTclk = true # indicates whther tClk is detemined automatically by the link BW or defined by the ini parameters
**.tClk = 2ns

